CB1 Apo2Mol sample 0
     RDKit          3D

 39 40  0  0  0  0  0  0  0  0999 V2000
  125.4473  166.9140  161.1604 C   0  0  0  0  0  0  0  0  0  0  0  0
  130.8629  168.9617  156.7715 C   0  0  0  0  0  0  0  0  0  0  0  0
  130.0815  167.5735  158.6510 C   0  0  0  0  0  0  0  0  0  0  0  0
  128.9097  166.5262  156.5583 C   0  0  0  0  0  0  0  0  0  0  0  0
  132.4625  170.7876  155.5066 C   0  0  0  0  0  0  0  0  0  0  0  0
  133.0908  170.0306  156.6156 C   0  0  0  0  0  0  0  0  0  0  0  0
  134.3731  170.5258  157.0207 C   0  0  0  0  0  0  0  0  0  0  0  0
  129.2105  166.3860  158.1561 C   0  0  0  0  0  0  0  0  0  0  0  0
  127.3892  164.5432  154.9650 C   0  0  0  0  0  0  0  0  0  0  0  0
  124.8657  169.6464  157.2346 C   0  0  0  0  0  0  0  0  0  0  0  0
  129.7964  168.8022  157.8375 C   0  0  0  0  0  0  0  0  0  0  0  0
  132.4918  168.4992  158.5980 C   0  0  0  0  0  0  0  0  0  0  0  0
  129.0039  166.1576  153.4288 C   0  0  0  0  0  0  0  0  0  0  0  0
  127.7493  166.0077  160.8583 C   0  0  0  0  0  0  0  0  0  0  0  0
  124.6798  169.4829  158.7239 C   0  0  0  0  0  0  0  0  0  0  0  0
  128.2092  168.9665  155.6710 C   0  0  0  0  0  0  0  0  0  0  0  0
  127.9301  166.9030  154.2902 C   0  0  0  0  0  0  0  0  0  0  0  0
  131.5416  167.2978  158.8572 C   0  0  0  0  0  0  0  0  0  0  0  0
  123.8875  170.4618  159.4383 C   0  0  0  0  0  0  0  0  0  0  0  0
  127.7172  163.8154  152.6567 C   0  0  0  0  0  0  0  0  0  0  0  0
  126.9209  165.9232  154.7049 C   0  0  0  0  0  0  0  0  0  0  0  0
  127.1018  169.3802  153.6864 C   0  0  0  0  0  0  0  0  0  0  0  0
  127.5541  162.8973  147.9520 C   0  0  0  0  0  0  0  0  0  0  0  0
  132.1823  169.2958  157.4559 C   0  0  0  0  0  0  0  0  0  0  0  0
  124.9894  166.0308  162.1615 C   0  0  0  0  0  0  0  0  0  0  0  0
  126.9024  163.5462  153.9247 C   0  0  0  0  0  0  0  0  0  0  0  0
  126.6616  169.0920  155.1832 C   0  0  0  0  0  0  0  0  0  0  0  0
  126.6238  167.9437  159.4621 C   0  0  0  0  0  0  0  0  0  0  0  0
  128.6181  167.5740  155.4665 C   0  0  0  0  0  0  0  0  0  0  0  0
  127.9107  162.6465  149.4536 C   0  0  0  0  0  0  0  0  0  0  0  0
  125.5643  165.7826  154.2093 C   0  0  0  0  0  0  0  0  0  0  0  0
  126.2270  169.5857  156.6301 C   0  0  0  0  0  0  0  0  0  0  0  0
  128.7194  162.6245  147.2173 C   0  0  0  0  0  0  0  0  0  0  0  0
  125.4000  168.3335  154.8996 C   0  0  0  0  0  0  0  0  0  0  0  0
  128.4593  169.2945  152.8912 C   0  0  0  0  0  0  0  0  0  0  0  0
  124.6265  167.8785  160.6008 C   0  0  0  0  0  0  0  0  0  0  0  0
  128.6243  164.9587  152.6313 C   0  0  0  0  0  0  0  0  0  0  0  0
  125.2996  168.4764  159.5601 C   0  0  0  0  0  0  0  0  0  0  0  0
  126.6685  166.9149  160.5449 C   0  0  0  0  0  0  0  0  0  0  0  0
  1 25  1  0
  1 36  2  0
  1 39  1  0
  2 11  1  0
  2 24  1  0
  3  8  1  0
  3 11  1  0
  3 18  1  0
  4  8  1  0
  4 29  1  0
  5  6  1  0
  6  7  1  0
  6 24  1  0
  9 21  1  0
  9 26  1  0
 10 15  1  0
 10 32  1  0
 12 18  1  0
 12 24  1  0
 13 17  1  0
 13 37  1  0
 14 39  1  0
 15 19  1  0
 15 38  1  0
 16 27  1  0
 16 29  1  0
 17 21  1  0
 17 29  1  0
 20 26  1  0
 20 37  2  0
 21 31  1  0
 22 27  1  0
 22 35  1  0
 23 30  1  0
 23 33  1  0
 27 32  1  0
 27 34  1  0
 28 38  2  0
 28 39  1  0
 36 38  1  0
M  END
>  <sample_index>  (1) 
0

$$$$
