CB1 SAGE-Flex sample 0
     RDKit          3D

 84 87  0  0  0  0  0  0  0  0999 V2000
  134.7890  167.0930  161.6500 C   0  0  1  0  0  0  0  0  0  0  0  0
  134.9260  166.6800  163.1310 C   0  0  1  0  0  0  0  0  0  0  0  0
  128.6710  164.3390  146.7980 C   0  0  0  0  0  0  0  0  0  0  0  0
  128.0640  165.4110  146.5600 O   0  0  0  0  0  0  0  0  0  0  0  0
  129.0060  163.5700  145.8610 O   0  0  0  0  0  0  0  0  0  0  0  0
  135.8730  168.1210  161.1650 C   0  0  1  0  0  0  0  0  0  0  0  0
  137.2770  167.7090  161.6250 C   0  0  1  0  0  0  0  0  0  0  0  0
  135.8950  168.4130  159.6220 C   0  0  1  0  0  0  0  0  0  0  0  0
  135.7790  167.1180  158.7840 C   0  0  1  0  0  0  0  0  0  0  0  0
  134.8930  169.5640  159.2600 C   0  0  1  0  0  0  0  0  0  0  0  0
  134.3250  169.5520  157.8090 C   0  0  1  0  0  0  0  0  0  0  0  0
  127.8120  159.7950  149.0310 O   0  0  0  0  0  0  0  0  0  0  0  0
  127.4140  158.8990  147.6520 P   0  0  2  0  0  0  0  0  0  0  0  0
  127.0790  157.4980  148.1190 O   0  0  0  0  0  0  0  0  0  0  0  0
  128.5960  158.7460  146.7080 O   0  0  0  0  0  0  0  0  0  0  0  0
  126.1970  159.4870  146.9610 O   0  0  0  0  0  0  0  0  0  0  0  0
  127.3200  162.2800  148.7100 C   0  0  1  0  0  0  0  0  0  0  0  0
  128.3700  161.1160  148.7700 C   0  0  1  0  0  0  0  0  0  0  0  0
  127.9220  163.6360  149.1820 C   0  0  2  0  0  0  0  0  0  0  0  0
  129.1270  164.0320  148.2610 C   0  0  1  0  0  0  0  0  0  0  0  0
  128.2500  163.3290  150.6640 O   0  0  0  0  0  0  0  0  0  0  0  0
  133.1300  168.6300  157.5950 C   0  0  0  0  0  0  0  0  0  0  0  0
  132.5280  167.9400  158.6660 C   0  0  0  0  0  0  0  0  0  0  0  0
  131.4570  167.0870  158.4530 C   0  0  0  0  0  0  0  0  0  0  0  0
  130.9240  166.9400  157.1690 C   0  0  0  0  0  0  0  0  0  0  0  0
  131.4580  167.6680  156.0880 C   0  0  0  0  0  0  0  0  0  0  0  0
  132.5790  168.4990  156.3040 C   0  0  0  0  0  0  0  0  0  0  0  0
  130.8450  167.5010  154.7410 C   0  0  0  0  0  0  0  0  0  0  0  0
  131.1820  168.2230  153.8120 O   0  0  0  0  0  0  0  0  0  0  0  0
  129.7420  166.5090  154.5700 C   0  0  0  0  0  0  0  0  0  0  0  0
  129.4340  165.9490  153.3120 C   0  0  0  0  0  0  0  0  0  0  0  0
  128.6100  164.7230  153.0510 C   0  0  0  0  0  0  0  0  0  0  0  0
  127.9630  164.4590  154.3750 C   0  0  0  0  0  0  0  0  0  0  0  0
  127.9030  165.3190  155.4920 C   0  0  0  0  0  0  0  0  0  0  0  0
  129.0560  166.0700  155.6940 C   0  0  0  0  0  0  0  0  0  0  0  0
  129.8140  166.0080  156.9530 C   0  0  0  0  0  0  0  0  0  0  0  0
  129.6940  165.0380  157.6900 O   0  0  0  0  0  0  0  0  0  0  0  0
  126.2070  166.5060  157.2170 C   0  0  0  0  0  0  0  0  0  0  0  0
  124.8530  166.8480  157.4790 C   0  0  0  0  0  0  0  0  0  0  0  0
  123.8060  166.4210  156.6620 C   0  0  0  0  0  0  0  0  0  0  0  0
  124.0780  165.6100  155.5710 C   0  0  0  0  0  0  0  0  0  0  0  0
  125.3960  165.2460  155.2880 C   0  0  0  0  0  0  0  0  0  0  0  0
  126.5110  165.6680  156.0720 C   0  0  0  0  0  0  0  0  0  0  0  0
  127.2680  167.0360  158.1940 C   0  0  1  0  0  0  0  0  0  0  0  0
  126.7990  167.8990  159.3890 C   0  0  2  0  0  0  0  0  0  0  0  0
  126.3300  169.1810  158.9640 O   0  0  0  0  0  0  0  0  0  0  0  0
  134.8230  166.1800  161.0550 H   0  0  0  0  0  0  0  0  0  0  0  0
  133.8000  167.5310  161.5160 H   0  0  0  0  0  0  0  0  0  0  0  0
  135.8240  166.0810  163.2820 H   0  0  0  0  0  0  0  0  0  0  0  0
  134.9710  167.5520  163.7840 H   0  0  0  0  0  0  0  0  0  0  0  0
  134.0730  166.0720  163.4310 H   0  0  0  0  0  0  0  0  0  0  0  0
  135.6460  169.0710  161.6480 H   0  0  0  0  0  0  0  0  0  0  0  0
  137.5200  166.6950  161.3050 H   0  0  0  0  0  0  0  0  0  0  0  0
  138.0170  168.4020  161.2230 H   0  0  0  0  0  0  0  0  0  0  0  0
  137.3480  167.7820  162.7100 H   0  0  0  0  0  0  0  0  0  0  0  0
  136.8770  168.8160  159.3760 H   0  0  0  0  0  0  0  0  0  0  0  0
  134.8180  166.6240  158.9260 H   0  0  0  0  0  0  0  0  0  0  0  0
  135.8900  167.3390  157.7220 H   0  0  0  0  0  0  0  0  0  0  0  0
  136.5710  166.4200  159.0560 H   0  0  0  0  0  0  0  0  0  0  0  0
  134.0860  169.6400  159.9900 H   0  0  0  0  0  0  0  0  0  0  0  0
  135.4300  170.5030  159.3960 H   0  0  0  0  0  0  0  0  0  0  0  0
  134.0070  170.5640  157.5560 H   0  0  0  0  0  0  0  0  0  0  0  0
  135.1180  169.3170  157.0990 H   0  0  0  0  0  0  0  0  0  0  0  0
  126.9250  162.3820  147.6990 H   0  0  0  0  0  0  0  0  0  0  0  0
  126.4760  162.0440  149.3570 H   0  0  0  0  0  0  0  0  0  0  0  0
  129.0780  161.3160  149.5740 H   0  0  0  0  0  0  0  0  0  0  0  0
  128.9750  161.1240  147.8630 H   0  0  0  0  0  0  0  0  0  0  0  0
  127.1430  164.3920  149.0770 H   0  0  0  0  0  0  0  0  0  0  0  0
  129.8890  163.2530  148.2670 H   0  0  0  0  0  0  0  0  0  0  0  0
  129.6190  164.9290  148.6390 H   0  0  0  0  0  0  0  0  0  0  0  0
  132.8770  168.0050  159.6880 H   0  0  0  0  0  0  0  0  0  0  0  0
  131.0570  166.5390  159.2950 H   0  0  0  0  0  0  0  0  0  0  0  0
  133.0270  169.0390  155.4800 H   0  0  0  0  0  0  0  0  0  0  0  0
  129.9910  166.4610  152.5390 H   0  0  0  0  0  0  0  0  0  0  0  0
  127.3130  163.6150  154.5650 H   0  0  0  0  0  0  0  0  0  0  0  0
  124.5570  167.4680  158.3150 H   0  0  0  0  0  0  0  0  0  0  0  0
  122.7880  166.7180  156.8760 H   0  0  0  0  0  0  0  0  0  0  0  0
  123.2720  165.2860  154.9260 H   0  0  0  0  0  0  0  0  0  0  0  0
  125.4920  164.6570  154.3850 H   0  0  0  0  0  0  0  0  0  0  0  0
  127.7630  166.1710  158.6360 H   0  0  0  0  0  0  0  0  0  0  0  0
  127.9960  167.6330  157.6440 H   0  0  0  0  0  0  0  0  0  0  0  0
  127.6410  168.0440  160.0670 H   0  0  0  0  0  0  0  0  0  0  0  0
  126.0340  167.3710  159.9590 H   0  0  0  0  0  0  0  0  0  0  0  0
  126.0620  169.7420  159.7230 H   0  0  0  0  0  0  0  0  0  0  0  0
  1  2  1  0
  1  6  1  0
  1 47  1  6
  1 48  1  0
  2 49  1  6
  2 50  1  0
  2 51  1  0
  3  4  2  0
  3  5  1  0
  3 20  1  0
  6  7  1  0
  6  8  1  0
  6 52  1  1
  7 53  1  1
  7 54  1  0
  7 55  1  0
  8  9  1  0
  8 10  1  0
  8 56  1  6
  9 57  1  6
  9 58  1  0
  9 59  1  0
 10 11  1  0
 10 60  1  1
 10 61  1  0
 11 22  1  0
 11 62  1  6
 11 63  1  0
 12 13  1  0
 12 18  1  0
 13 14  2  0
 13 15  1  6
 13 16  1  0
 17 18  1  0
 17 19  1  0
 17 64  1  6
 17 65  1  0
 18 66  1  1
 18 67  1  0
 19 20  1  0
 19 21  1  0
 19 68  1  1
 20 69  1  6
 20 70  1  0
 21 32  1  0
 22 27  2  0
 22 23  1  0
 23 24  2  0
 23 71  1  0
 24 25  1  0
 24 72  1  0
 25 36  1  0
 25 26  2  0
 26 27  1  0
 26 28  1  0
 27 73  1  0
 28 29  2  0
 28 30  1  0
 30 35  2  0
 30 31  1  0
 31 32  2  0
 31 74  1  0
 32 33  1  0
 33 34  2  0
 33 75  1  0
 34 35  1  0
 34 43  1  0
 35 36  1  0
 36 37  2  0
 38 43  2  0
 38 39  1  0
 38 44  1  0
 39 40  2  0
 39 76  1  0
 40 41  1  0
 40 77  1  0
 41 42  2  0
 41 78  1  0
 42 43  1  0
 42 79  1  0
 44 45  1  0
 44 80  1  1
 44 81  1  0
 45 46  1  0
 45 82  1  1
 45 83  1  0
 46 84  1  0
M  CHG  3   5  -1  15  -1  16  -1
M  END
>  <i_m_ct_stereo_status>  (1) 
1

>  <sample_index>  (1) 
0

$$$$
