FUT8 SAGE-Flex sample 0
     RDKit          3D

 92 92  0  0  0  0  0  0  0  0999 V2000
  -36.2380   36.9600    5.0980 C   0  0  1  0  0  0  0  0  0  0  0  0
  -34.0760   30.3880    8.9310 C   0  0  0  0  0  0  0  0  0  0  0  0
  -34.7280   29.8540    9.8590 O   0  0  0  0  0  0  0  0  0  0  0  0
  -32.9930   30.9780    9.1670 O   0  0  0  0  0  0  0  0  0  0  0  0
  -35.5760   35.5890   -2.7860 O   0  0  0  0  0  0  0  0  0  0  0  0
  -34.1450   32.1680   -5.0750 C   0  0  1  0  0  0  0  0  0  0  0  0
  -34.2480   30.4850    2.6440 C   0  0  2  0  0  0  0  0  0  0  0  0
  -33.9890   29.3990    1.7460 O   0  0  0  0  0  0  0  0  0  0  0  0
  -35.7180   29.2000    4.2890 C   0  0  1  0  0  0  0  0  0  0  0  0
  -34.4240   30.0350    4.1460 C   0  0  1  0  0  0  0  0  0  0  0  0
  -33.2100   29.1050    4.4680 C   0  0  1  0  0  0  0  0  0  0  0  0
  -34.6520   30.3320    7.4820 C   0  0  1  0  0  0  0  0  0  0  0  0
  -33.8130   31.1380    6.4660 C   0  0  1  0  0  0  0  0  0  0  0  0
  -35.3900   32.3230    4.8850 C   0  0  0  0  0  0  0  0  0  0  0  0
  -36.2410   32.2180    4.0130 O   0  0  0  0  0  0  0  0  0  0  0  0
  -34.4830   31.2370    5.1110 N   0  0  0  0  0  0  0  0  0  0  0  0
  -35.3830   33.6400    5.7490 C   0  0  1  0  0  0  0  0  0  0  0  0
  -34.0610   34.4190    5.5390 C   0  0  1  0  0  0  0  0  0  0  0  0
  -36.6150   34.5480    5.4090 C   0  0  0  0  0  0  0  0  0  0  0  0
  -37.7220   34.1770    5.7760 O   0  0  0  0  0  0  0  0  0  0  0  0
  -36.5200   35.6200    4.4940 N   0  0  0  0  0  0  0  0  0  0  0  0
  -37.3810   35.5630    3.2490 C   0  0  1  0  0  0  0  0  0  0  0  0
  -38.6030   36.4940    3.3980 C   0  0  1  0  0  0  0  0  0  0  0  0
  -36.6380   35.8560    1.8870 C   0  0  1  0  0  0  0  0  0  0  0  0
  -35.1940   36.3600    2.0200 C   0  0  1  0  0  0  0  0  0  0  0  0
  -36.5780   34.6050    0.9770 C   0  0  0  0  0  0  0  0  0  0  0  0
  -35.9190   33.6330    1.3260 O   0  0  0  0  0  0  0  0  0  0  0  0
  -37.0320   34.7000   -0.3460 N   0  0  0  0  0  0  0  0  0  0  0  0
  -36.4970   33.8270   -1.4270 C   0  0  1  0  0  0  0  0  0  0  0  0
  -35.2080   34.4580   -1.9950 C   0  0  1  0  0  0  0  0  0  0  0  0
  -35.0790   32.9030   -4.0730 C   0  0  1  0  0  0  0  0  0  0  0  0
  -34.3290   33.4880   -2.8350 C   0  0  2  0  0  0  0  0  0  0  0  0
  -33.7750   32.3500   -1.9410 C   0  0  1  0  0  0  0  0  0  0  0  0
  -31.1530   34.3970   -5.8970 C   0  0  0  0  0  0  0  0  0  0  0  0
  -31.9890   33.4530   -5.2880 C   0  0  0  0  0  0  0  0  0  0  0  0
  -33.2480   33.1380   -5.8410 C   0  0  0  0  0  0  0  0  0  0  0  0
  -33.6650   33.7650   -7.0510 C   0  0  0  0  0  0  0  0  0  0  0  0
  -32.7960   34.7030   -7.6590 C   0  0  0  0  0  0  0  0  0  0  0  0
  -31.5610   35.0250   -7.0780 C   0  0  0  0  0  0  0  0  0  0  0  0
  -35.4860   34.3600   -8.8000 C   0  0  2  0  0  0  0  0  0  0  0  0
  -34.8570   32.0940   -8.3360 O   0  0  0  0  0  0  0  0  0  0  0  0
  -34.9960   33.3760   -7.7200 C   0  0  1  0  0  0  0  0  0  0  0  0
  -37.0330   37.2400    5.7900 H   0  0  0  0  0  0  0  0  0  0  0  0
  -35.2930   36.9590    5.6410 H   0  0  0  0  0  0  0  0  0  0  0  0
  -36.1700   37.7400    4.3390 H   0  0  0  0  0  0  0  0  0  0  0  0
  -36.0940   36.2430   -2.2700 H   0  0  0  0  0  0  0  0  0  0  0  0
  -33.5330   31.4310   -4.5540 H   0  0  0  0  0  0  0  0  0  0  0  0
  -34.7510   31.5880   -5.7720 H   0  0  0  0  0  0  0  0  0  0  0  0
  -35.1400   30.9970    2.2840 H   0  0  0  0  0  0  0  0  0  0  0  0
  -33.4320   31.2040    2.5680 H   0  0  0  0  0  0  0  0  0  0  0  0
  -34.7250   28.7510    1.7300 H   0  0  0  0  0  0  0  0  0  0  0  0
  -36.0750   29.2130    5.3190 H   0  0  0  0  0  0  0  0  0  0  0  0
  -36.5160   29.5980    3.6630 H   0  0  0  0  0  0  0  0  0  0  0  0
  -35.5370   28.1650    3.9990 H   0  0  0  0  0  0  0  0  0  0  0  0
  -33.2830   28.6940    5.4750 H   0  0  0  0  0  0  0  0  0  0  0  0
  -33.1670   28.2490    3.7940 H   0  0  0  0  0  0  0  0  0  0  0  0
  -32.2700   29.6490    4.3760 H   0  0  0  0  0  0  0  0  0  0  0  0
  -34.6980   29.2920    7.1610 H   0  0  0  0  0  0  0  0  0  0  0  0
  -35.6680   30.7260    7.4860 H   0  0  0  0  0  0  0  0  0  0  0  0
  -33.6300   32.1260    6.8880 H   0  0  0  0  0  0  0  0  0  0  0  0
  -32.8130   30.7120    6.3790 H   0  0  0  0  0  0  0  0  0  0  0  0
  -35.4570   33.3690    6.8030 H   0  0  0  0  0  0  0  0  0  0  0  0
  -33.9620   34.7350    4.5010 H   0  0  0  0  0  0  0  0  0  0  0  0
  -34.0170   35.2900    6.1930 H   0  0  0  0  0  0  0  0  0  0  0  0
  -33.1860   33.8140    5.7750 H   0  0  0  0  0  0  0  0  0  0  0  0
  -37.7750   34.5500    3.1710 H   0  0  0  0  0  0  0  0  0  0  0  0
  -39.3140   36.3090    2.5930 H   0  0  0  0  0  0  0  0  0  0  0  0
  -39.1150   36.3060    4.3420 H   0  0  0  0  0  0  0  0  0  0  0  0
  -38.3000   37.5410    3.3640 H   0  0  0  0  0  0  0  0  0  0  0  0
  -37.1920   36.6250    1.3500 H   0  0  0  0  0  0  0  0  0  0  0  0
  -34.7480   36.5080    1.0370 H   0  0  0  0  0  0  0  0  0  0  0  0
  -35.1480   37.3160    2.5430 H   0  0  0  0  0  0  0  0  0  0  0  0
  -34.5960   35.6290    2.5650 H   0  0  0  0  0  0  0  0  0  0  0  0
  -37.4670   35.5810   -0.6300 H   0  0  0  0  0  0  0  0  0  0  0  0
  -36.3040   32.8230   -1.0490 H   0  0  0  0  0  0  0  0  0  0  0  0
  -37.2400   33.7180   -2.2170 H   0  0  0  0  0  0  0  0  0  0  0  0
  -34.6000   34.8070   -1.1600 H   0  0  0  0  0  0  0  0  0  0  0  0
  -35.6080   33.6980   -4.5990 H   0  0  0  0  0  0  0  0  0  0  0  0
  -35.8400   32.2030   -3.7280 H   0  0  0  0  0  0  0  0  0  0  0  0
  -33.4830   34.0830   -3.1790 H   0  0  0  0  0  0  0  0  0  0  0  0
  -33.4340   32.7440   -0.9830 H   0  0  0  0  0  0  0  0  0  0  0  0
  -34.5380   31.5970   -1.7430 H   0  0  0  0  0  0  0  0  0  0  0  0
  -32.9230   31.8650   -2.4170 H   0  0  0  0  0  0  0  0  0  0  0  0
  -30.1970   34.6460   -5.4560 H   0  0  0  0  0  0  0  0  0  0  0  0
  -31.6620   32.9840   -4.3700 H   0  0  0  0  0  0  0  0  0  0  0  0
  -33.0500   35.2010   -8.5860 H   0  0  0  0  0  0  0  0  0  0  0  0
  -30.9090   35.7500   -7.5480 H   0  0  0  0  0  0  0  0  0  0  0  0
  -36.4860   34.0810   -9.1330 H   0  0  0  0  0  0  0  0  0  0  0  0
  -34.8260   34.3490   -9.6670 H   0  0  0  0  0  0  0  0  0  0  0  0
  -35.5330   35.3740   -8.4010 H   0  0  0  0  0  0  0  0  0  0  0  0
  -34.1430   32.0870   -9.0090 H   0  0  0  0  0  0  0  0  0  0  0  0
  -35.7710   33.3200   -6.9550 H   0  0  0  0  0  0  0  0  0  0  0  0
  1 21  1  0
  1 43  1  1
  1 44  1  0
  1 45  1  0
  2  3  2  0
  2  4  1  0
  2 12  1  0
  5 30  1  0
  5 46  1  0
  6 31  1  0
  6 36  1  0
  6 47  1  1
  6 48  1  0
  7 10  1  0
  7  8  1  0
  7 49  1  1
  7 50  1  0
  8 51  1  0
  9 10  1  0
  9 52  1  1
  9 53  1  0
  9 54  1  0
 10 11  1  0
 10 16  1  1
 11 55  1  1
 11 56  1  0
 11 57  1  0
 12 13  1  0
 12 58  1  6
 12 59  1  0
 13 16  1  0
 13 60  1  1
 13 61  1  0
 14 15  2  0
 14 16  1  0
 14 17  1  0
 17 18  1  0
 17 19  1  0
 17 62  1  1
 18 63  1  6
 18 64  1  0
 18 65  1  0
 19 20  2  0
 19 21  1  0
 21 22  1  0
 22 23  1  0
 22 24  1  0
 22 66  1  6
 23 67  1  6
 23 68  1  0
 23 69  1  0
 24 25  1  0
 24 26  1  0
 24 70  1  6
 25 71  1  6
 25 72  1  0
 25 73  1  0
 26 27  2  0
 26 28  1  0
 28 29  1  0
 28 74  1  0
 29 30  1  0
 29 75  1  1
 29 76  1  0
 30 32  1  0
 30 77  1  1
 31 32  1  0
 31 78  1  6
 31 79  1  0
 32 33  1  0
 32 80  1  6
 33 81  1  1
 33 82  1  0
 33 83  1  0
 34 39  2  0
 34 35  1  0
 34 84  1  0
 35 36  2  0
 35 85  1  0
 36 37  1  0
 37 38  2  0
 37 42  1  0
 38 39  1  0
 38 86  1  0
 39 87  1  0
 40 42  1  0
 40 88  1  6
 40 89  1  0
 40 90  1  0
 41 42  1  0
 41 91  1  0
 42 92  1  1
M  CHG  1   4  -1
M  END
>  <i_m_ct_stereo_status>  (1) 
1

>  <sample_index>  (1) 
0

$$$$
