FUT8 Apo2Mol sample 0
     RDKit          3D

 34 37  0  0  0  0  0  0  0  0999 V2000
  -32.3506   34.6896   -0.8279 O   0  0  0  0  0  0  0  0  0  0  0  0
  -33.6988   32.3834   -5.5840 O   0  0  0  0  0  0  0  0  0  0  0  0
  -35.5387   34.3338   -2.5125 C   0  0  0  0  0  0  0  0  0  0  0  0
  -36.3490   33.7187   -1.4001 C   0  0  0  0  0  0  0  0  0  0  0  0
  -38.0364   33.8824    2.9030 C   0  0  0  0  0  0  0  0  0  0  0  0
  -35.8870   32.9182    1.4691 C   0  0  0  0  0  0  0  0  0  0  0  0
  -34.9688   34.9391   -6.3354 C   0  0  0  0  0  0  0  0  0  0  0  0
  -35.9108   29.9384    4.2556 C   0  0  0  0  0  0  0  0  0  0  0  0
  -34.5848   29.2027    1.9963 C   0  0  0  0  0  0  0  0  0  0  0  0
  -39.0863   33.4344   -1.2111 C   0  0  0  0  0  0  0  0  0  0  0  0
  -32.9432   30.8322    3.5408 C   0  0  0  0  0  0  0  0  0  0  0  0
  -38.5396   33.7413    0.1529 C   0  0  0  0  0  0  0  0  0  0  0  0
  -33.9668   33.3118   -4.7479 C   0  0  0  0  0  0  0  0  0  0  0  0
  -34.8183   34.4697   -4.9112 C   0  0  0  0  0  0  0  0  0  0  0  0
  -37.5280   36.3431    2.4395 C   0  0  0  0  0  0  0  0  0  0  0  0
  -37.4386   34.6128    0.6122 C   0  0  0  0  0  0  0  0  0  0  0  0
  -34.6777   34.6962    0.0376 C   0  0  0  0  0  0  0  0  0  0  0  0
  -33.6516   28.2172    4.2478 C   0  0  0  0  0  0  0  0  0  0  0  0
  -34.2741   31.4661    3.0933 C   0  0  0  0  0  0  0  0  0  0  0  0
  -34.0907   34.0904   -2.3632 C   0  0  0  0  0  0  0  0  0  0  0  0
  -36.0322   33.9151    0.1734 C   0  0  0  0  0  0  0  0  0  0  0  0
  -32.9383   29.5171    4.2354 C   0  0  0  0  0  0  0  0  0  0  0  0
  -33.5803   33.1315   -3.3147 C   0  0  0  0  0  0  0  0  0  0  0  0
  -34.4338   32.3323    1.7700 C   0  0  0  0  0  0  0  0  0  0  0  0
  -35.2722   30.2904    2.9428 C   0  0  0  0  0  0  0  0  0  0  0  0
  -37.5414   35.0223    1.9857 C   0  0  0  0  0  0  0  0  0  0  0  0
  -33.9170   34.5003   -7.3167 C   0  0  0  0  0  0  0  0  0  0  0  0
  -31.6987   31.6800    3.6153 C   0  0  0  0  0  0  0  0  0  0  0  0
  -33.2091   27.2217    4.9792 O   0  0  0  0  0  0  0  0  0  0  0  0
  -34.4180   27.8332    2.9908 C   0  0  0  0  0  0  0  0  0  0  0  0
  -35.9500   34.5480   -3.9444 C   0  0  0  0  0  0  0  0  0  0  0  0
  -36.9858   32.6620    2.5538 C   0  0  0  0  0  0  0  0  0  0  0  0
  -32.6457   31.9112   -3.1055 C   0  0  0  0  0  0  0  0  0  0  0  0
  -33.6171   34.4843   -1.0037 C   0  0  0  0  0  0  0  0  0  0  0  0
  1 34  1  0
  2 13  2  0
  3  4  1  0
  3 20  1  0
  3 31  1  0
  4 21  1  0
  5 26  1  0
  5 32  1  0
  6 21  1  0
  6 24  2  3
  6 32  1  0
  7 14  1  0
  7 27  1  0
  8 25  1  0
  9 25  1  0
  9 30  1  0
 10 12  1  0
 11 19  1  0
 11 22  1  0
 11 28  1  0
 12 16  1  0
 13 14  1  0
 13 23  1  0
 14 31  1  0
 15 26  1  0
 16 21  1  0
 16 26  1  0
 17 21  1  0
 17 34  1  0
 18 22  1  0
 18 29  1  0
 18 30  1  0
 19 24  1  0
 19 25  1  0
 20 23  1  0
 20 34  1  0
 23 33  1  0
M  END
>  <sample_index>  (1) 
0

$$$$
