KRAS Apo2Mol sample 0
     RDKit          3D

 41 46  0  0  0  0  0  0  0  0999 V2000
    4.1623   -7.5959   -0.4186 C   0  0  0  0  0  0  0  0  0  0  0  0
    0.1088   -6.7364   -2.6834 C   0  0  0  0  0  0  0  0  0  0  0  0
    9.1790   -6.4090    2.5923 C   0  0  0  0  0  0  0  0  0  0  0  0
   -1.1087   -5.6168    2.6955 C   0  0  0  0  0  0  0  0  0  0  0  0
    0.9771   -5.5591   -2.3888 C   0  0  0  0  0  0  0  0  0  0  0  0
    7.0212   -8.9312    3.6126 C   0  0  0  0  0  0  0  0  0  0  0  0
    4.8826   -9.1678    4.3759 C   0  0  0  0  0  0  0  0  0  0  0  0
    0.5256   -9.0709   -1.6522 C   0  0  0  0  0  0  0  0  0  0  0  0
    2.9063   -9.0864    1.3600 C   0  0  0  0  0  0  0  0  0  0  0  0
    6.7977   -6.6032    1.8196 C   0  0  0  0  0  0  0  0  0  0  0  0
    1.5201   -6.5317    2.3142 C   0  0  0  0  0  0  0  0  0  0  0  0
   -0.9885   -2.3127    0.6822 C   0  0  0  0  0  0  0  0  0  0  0  0
   10.8738   -5.8637    0.9661 C   0  0  0  0  0  0  0  0  0  0  0  0
    2.5055   -6.1340   -2.2343 C   0  0  0  0  0  0  0  0  0  0  0  0
    2.0244   -8.6450   -1.5815 C   0  0  0  0  0  0  0  0  0  0  0  0
    2.4734   -7.6220   -2.6440 C   0  0  0  0  0  0  0  0  0  0  0  0
    4.1865  -10.1978    3.4188 C   0  0  0  0  0  0  0  0  0  0  0  0
    2.8782   -9.4757    2.9143 C   0  0  0  0  0  0  0  0  0  0  0  0
    8.2129   -6.3492    1.5775 C   0  0  0  0  0  0  0  0  0  0  0  0
   -0.3685   -7.8250   -1.8013 C   0  0  0  0  0  0  0  0  0  0  0  0
   -1.4135   -4.6292   -1.3055 C   0  0  0  0  0  0  0  0  0  0  0  0
    5.6545   -8.2359    3.2822 C   0  0  0  0  0  0  0  0  0  0  0  0
    9.9583   -5.6638    0.0587 N   0  0  0  0  0  0  0  0  0  0  0  0
   -0.3314   -6.1983    0.4340 C   0  0  0  0  0  0  0  0  0  0  0  0
    6.1547   -6.7298    3.1429 C   0  0  0  0  0  0  0  0  0  0  0  0
    6.2129   -6.8304    0.7595 N   0  0  0  0  0  0  0  0  0  0  0  0
    5.1227  -10.2510    2.1722 C   0  0  0  0  0  0  0  0  0  0  0  0
    4.1947   -8.3252    0.9070 C   0  0  0  0  0  0  0  0  0  0  0  0
    1.1720   -7.5077   -3.6627 C   0  0  0  0  0  0  0  0  0  0  0  0
    1.1192   -4.2170   -0.0136 C   0  0  0  0  0  0  0  0  0  0  0  0
   -1.8768   -4.4830    1.9418 C   0  0  0  0  0  0  0  0  0  0  0  0
    7.6523   -5.7031   -0.7159 C   0  0  0  0  0  0  0  0  0  0  0  0
    0.0865   -6.2068    1.8591 C   0  0  0  0  0  0  0  0  0  0  0  0
   10.5101   -6.1884    2.2947 C   0  0  0  0  0  0  0  0  0  0  0  0
    5.0999   -6.8049   -1.3530 C   0  0  0  0  0  0  0  0  0  0  0  0
    6.3603   -6.4422   -0.5113 C   0  0  0  0  0  0  0  0  0  0  0  0
   -0.3660   -4.7574   -0.1416 C   0  0  0  0  0  0  0  0  0  0  0  0
    5.2907   -8.7420    1.8615 C   0  0  0  0  0  0  0  0  0  0  0  0
    3.7135   -8.2312   -3.3913 C   0  0  0  0  0  0  0  0  0  0  0  0
    8.6433   -5.9149    0.3305 C   0  0  0  0  0  0  0  0  0  0  0  0
   -0.9640   -3.7987    0.9103 C   0  0  0  0  0  0  0  0  0  0  0  0
  1 28  2  0
  1 35  1  0
  2  5  1  0
  2 20  1  0
  2 29  1  0
  3 19  1  0
  3 34  2  0
  4 31  1  0
  4 33  1  0
  5 14  1  0
  6 22  1  0
  7 17  1  0
  7 22  1  0
  8 15  1  0
  8 20  1  0
  9 18  1  0
  9 28  1  0
 10 19  1  0
 10 25  1  0
 10 26  1  0
 11 33  1  0
 12 41  1  0
 13 23  2  0
 13 34  1  0
 14 16  1  0
 15 16  1  0
 16 29  1  0
 16 39  1  0
 17 18  1  0
 17 27  1  0
 19 40  2  0
 21 37  1  0
 22 25  1  0
 22 38  1  0
 23 40  1  0
 24 33  1  0
 24 37  1  0
 26 36  2  0
 27 38  1  0
 28 38  1  0
 30 37  1  0
 31 41  1  0
 32 36  1  0
 32 40  1  0
 35 36  1  0
 37 41  1  0
M  END
>  <sample_index>  (1) 
0

$$$$
