KRAS SAGE-Flex sample 0
     RDKit          3D

 81 85  0  0  0  0  0  0  0  0999 V2000
    0.6490   -3.2050    1.4170 C   0  0  1  0  0  0  0  0  0  0  0  0
    1.1840   -1.7470    1.3960 C   0  0  1  0  0  0  0  0  0  0  0  0
    0.1580   -0.6640    0.9810 C   0  0  1  0  0  0  0  0  0  0  0  0
    6.1990   -7.0000   -4.2400 C   0  0  0  0  0  0  0  0  0  0  0  0
    6.9640   -6.5150   -3.2360 N   0  0  0  0  0  0  0  0  0  0  0  0
    8.3080   -6.5190   -3.3400 C   0  0  0  0  0  0  0  0  0  0  0  0
    8.9240   -7.0070   -4.4980 C   0  0  0  0  0  0  0  0  0  0  0  0
    8.1770   -7.4750   -5.5210 N   0  0  0  0  0  0  0  0  0  0  0  0
    6.8270   -7.4890   -5.4210 C   0  0  0  0  0  0  0  0  0  0  0  0
    4.6890   -7.0330   -4.0280 C   0  0  1  0  0  0  0  0  0  0  0  0
    2.6780   -8.6240    3.2100 C   0  0  0  0  0  0  0  0  0  0  0  0
    2.3990   -8.9880    4.3830 O   0  0  0  0  0  0  0  0  0  0  0  0
    3.8660   -8.7020    2.8090 O   0  0  0  0  0  0  0  0  0  0  0  0
    6.0410   -8.0150   -6.6020 C   0  0  1  0  0  0  0  0  0  0  0  0
    4.2940   -8.1430   -1.6870 C   0  0  0  0  0  0  0  0  0  0  0  0
    4.2670   -8.1830   -3.1190 C   0  0  0  0  0  0  0  0  0  0  0  0
    3.8790   -9.3770   -3.7640 C   0  0  0  0  0  0  0  0  0  0  0  0
    3.5340  -10.5190   -3.0330 C   0  0  0  0  0  0  0  0  0  0  0  0
    3.5810  -10.4890   -1.6380 C   0  0  0  0  0  0  0  0  0  0  0  0
    3.9700   -9.3180   -0.9780 C   0  0  0  0  0  0  0  0  0  0  0  0
   -1.2610   -0.8980    3.1250 C   0  0  2  0  0  0  0  0  0  0  0  0
   -0.4850    0.0610    2.1950 C   0  0  2  0  0  0  0  0  0  0  0  0
   -1.4360    1.1620    1.6870 C   0  0  2  0  0  0  0  0  0  0  0  0
   -1.9710   -3.5440   -0.3770 C   0  0  2  0  0  0  0  0  0  0  0  0
   -0.5380   -3.5050   -0.9410 C   0  0  1  0  0  0  0  0  0  0  0  0
    0.5150   -4.0300    0.0790 C   0  0  1  0  0  0  0  0  0  0  0  0
    4.7340   -6.9390   -0.8360 C   0  0  1  0  0  0  0  0  0  0  0  0
    3.9050   -5.6640   -0.9870 C   0  0  0  0  0  0  0  0  0  0  0  0
    2.5930   -5.5300   -0.4380 C   0  0  0  0  0  0  0  0  0  0  0  0
    1.8880   -4.2890   -0.5810 C   0  0  0  0  0  0  0  0  0  0  0  0
    2.5130   -3.2730   -1.3350 C   0  0  0  0  0  0  0  0  0  0  0  0
    3.7800   -3.4010   -1.8390 C   0  0  0  0  0  0  0  0  0  0  0  0
    4.1580   -2.2670   -2.5190 N   0  0  0  0  0  0  0  0  0  0  0  0
    3.1440   -1.4140   -2.4520 N   0  0  0  0  0  0  0  0  0  0  0  0
    2.1420   -2.0210   -1.7180 N   0  0  0  0  0  0  0  0  0  0  0  0
    4.5070   -4.5680   -1.6330 C   0  0  0  0  0  0  0  0  0  0  0  0
    2.0550   -6.6170    0.2780 N   0  0  0  0  0  0  0  0  0  0  0  0
    1.1970   -7.6110   -0.3710 C   0  0  1  0  0  0  0  0  0  0  0  0
    1.1860   -8.9700    0.8070 S   0  0  0  0  0  0  0  0  0  0  0  0
    1.5590   -7.9910    2.2800 C   0  0  2  0  0  0  0  0  0  0  0  0
    1.9990   -6.6010    1.7510 C   0  0  1  0  0  0  0  0  0  0  0  0
    0.3170   -7.8860    2.9900 O   0  0  0  0  0  0  0  0  0  0  0  0
    1.3320   -3.7530    2.0670 H   0  0  0  0  0  0  0  0  0  0  0  0
   -0.3110   -3.2170    1.9330 H   0  0  0  0  0  0  0  0  0  0  0  0
    1.5460   -1.5070    2.3960 H   0  0  0  0  0  0  0  0  0  0  0  0
    2.0780   -1.6800    0.7750 H   0  0  0  0  0  0  0  0  0  0  0  0
    0.6740    0.0800    0.3740 H   0  0  0  0  0  0  0  0  0  0  0  0
   -0.6270   -1.0870    0.3540 H   0  0  0  0  0  0  0  0  0  0  0  0
    8.9170   -6.1580   -2.5220 H   0  0  0  0  0  0  0  0  0  0  0  0
   10.0040   -7.0070   -4.5520 H   0  0  0  0  0  0  0  0  0  0  0  0
    4.3440   -6.0780   -3.6320 H   0  0  0  0  0  0  0  0  0  0  0  0
    4.1720   -7.1180   -4.9840 H   0  0  0  0  0  0  0  0  0  0  0  0
    5.4730   -8.9030   -6.3210 H   0  0  0  0  0  0  0  0  0  0  0  0
    5.3580   -7.2510   -6.9740 H   0  0  0  0  0  0  0  0  0  0  0  0
    6.7100   -8.2900   -7.4170 H   0  0  0  0  0  0  0  0  0  0  0  0
    3.8370   -9.4330   -4.8440 H   0  0  0  0  0  0  0  0  0  0  0  0
    3.2340  -11.4250   -3.5430 H   0  0  0  0  0  0  0  0  0  0  0  0
    3.3140  -11.3680   -1.0670 H   0  0  0  0  0  0  0  0  0  0  0  0
    4.0040   -9.3280    0.1030 H   0  0  0  0  0  0  0  0  0  0  0  0
   -1.7920   -0.3350    3.8930 H   0  0  0  0  0  0  0  0  0  0  0  0
   -0.5800   -1.5820    3.6320 H   0  0  0  0  0  0  0  0  0  0  0  0
   -1.9900   -1.4790    2.5610 H   0  0  0  0  0  0  0  0  0  0  0  0
    0.3070    0.5350    2.7750 H   0  0  0  0  0  0  0  0  0  0  0  0
   -0.8930    1.8760    1.0670 H   0  0  0  0  0  0  0  0  0  0  0  0
   -1.8730    1.7050    2.5250 H   0  0  0  0  0  0  0  0  0  0  0  0
   -2.2430    0.7300    1.0950 H   0  0  0  0  0  0  0  0  0  0  0  0
   -2.6820   -3.2390   -1.1460 H   0  0  0  0  0  0  0  0  0  0  0  0
   -2.0810   -2.8700    0.4720 H   0  0  0  0  0  0  0  0  0  0  0  0
   -2.2290   -4.5520   -0.0530 H   0  0  0  0  0  0  0  0  0  0  0  0
   -0.5070   -4.1360   -1.8290 H   0  0  0  0  0  0  0  0  0  0  0  0
   -0.3090   -2.4910   -1.2680 H   0  0  0  0  0  0  0  0  0  0  0  0
    0.1200   -5.0000    0.3820 H   0  0  0  0  0  0  0  0  0  0  0  0
    4.7210   -7.2200    0.2170 H   0  0  0  0  0  0  0  0  0  0  0  0
    5.7860   -6.7260   -1.0300 H   0  0  0  0  0  0  0  0  0  0  0  0
    1.2590   -1.5770   -1.4550 H   0  0  0  0  0  0  0  0  0  0  0  0
    5.5190   -4.6290   -2.0130 H   0  0  0  0  0  0  0  0  0  0  0  0
    0.1900   -7.2160   -0.5050 H   0  0  0  0  0  0  0  0  0  0  0  0
    1.5980   -7.9320   -1.3330 H   0  0  0  0  0  0  0  0  0  0  0  0
    2.9770   -6.3280    2.1470 H   0  0  0  0  0  0  0  0  0  0  0  0
    1.2730   -5.8590    2.0840 H   0  0  0  0  0  0  0  0  0  0  0  0
    0.0340   -8.7570    3.3430 H   0  0  0  0  0  0  0  0  0  0  0  0
  1  2  1  0
  1 26  1  0
  1 43  1  1
  1 44  1  0
  2  3  1  0
  2 45  1  1
  2 46  1  0
  3 22  1  0
  3 47  1  6
  3 48  1  0
  4  9  1  0
  4  5  2  0
  4 10  1  0
  5  6  1  0
  6  7  2  0
  6 49  1  0
  7  8  1  0
  7 50  1  0
  8  9  2  0
  9 14  1  0
 10 16  1  0
 10 51  1  1
 10 52  1  0
 11 12  2  0
 11 13  1  0
 11 40  1  0
 14 53  1  1
 14 54  1  0
 14 55  1  0
 15 20  2  0
 15 16  1  0
 15 27  1  0
 16 17  2  0
 17 18  1  0
 17 56  1  0
 18 19  2  0
 18 57  1  0
 19 20  1  0
 19 58  1  0
 20 59  1  0
 21 22  1  0
 21 60  1  1
 21 61  1  0
 21 62  1  0
 22 23  1  0
 22 63  1  1
 23 64  1  6
 23 65  1  0
 23 66  1  0
 24 25  1  0
 24 67  1  6
 24 68  1  0
 24 69  1  0
 25 26  1  0
 25 70  1  6
 25 71  1  0
 26 30  1  0
 26 72  1  1
 27 28  1  0
 27 73  1  1
 27 74  1  0
 28 36  2  0
 28 29  1  0
 29 30  2  0
 29 37  1  0
 30 31  1  0
 31 35  1  0
 31 32  2  0
 32 33  1  0
 32 36  1  0
 33 34  2  0
 34 35  1  0
 35 75  1  0
 36 76  1  0
 37 41  1  0
 37 38  1  0
 38 39  1  0
 38 77  1  6
 38 78  1  0
 39 40  1  0
 40 41  1  0
 40 42  1  1
 41 79  1  1
 41 80  1  0
 42 81  1  0
M  CHG  1  13  -1
M  END
>  <i_m_ct_stereo_status>  (1) 
1

>  <sample_index>  (1) 
0

$$$$
