Menin SAGE-Flex sample 0
     RDKit          3D

 37 38  0  0  0  0  0  0  0  0999 V2000
  -32.3890    2.8320  -10.9120 C   0  0  0  0  0  0  0  0  0  0  0  0
  -32.9290    3.9660  -10.9680 O   0  0  0  0  0  0  0  0  0  0  0  0
  -32.3650    2.1150  -11.9450 O   0  0  0  0  0  0  0  0  0  0  0  0
  -29.9210   -5.2610   -8.1810 C   0  0  0  0  0  0  0  0  0  0  0  0
  -30.4580   -4.1760   -7.6690 N   0  0  0  0  0  0  0  0  0  0  0  0
  -29.6820   -3.0890   -8.0210 C   0  0  0  0  0  0  0  0  0  0  0  0
  -28.5700   -3.3710   -8.7860 C   0  0  0  0  0  0  0  0  0  0  0  0
  -28.4490   -5.0640   -9.1300 S   0  0  0  0  0  0  0  0  0  0  0  0
  -31.8080    3.3150   -8.5330 O   0  0  0  0  0  0  0  0  0  0  0  0
  -31.6730    2.3330   -9.5750 C   0  0  2  0  0  0  0  0  0  0  0  0
  -30.1610    2.2060   -9.9150 C   0  0  2  0  0  0  0  0  0  0  0  0
  -33.7730    0.5940   -6.6730 N   0  0  0  0  0  0  0  0  0  0  0  0
  -34.3600    0.1420   -7.9330 C   0  0  1  0  0  0  0  0  0  0  0  0
  -33.7700    0.9940   -9.0590 C   0  0  1  0  0  0  0  0  0  0  0  0
  -32.2690    1.0310   -9.0780 N   0  0  0  0  0  0  0  0  0  0  0  0
  -31.5560    0.3380   -7.9360 C   0  0  1  0  0  0  0  0  0  0  0  0
  -32.3260    0.3290   -6.5690 C   0  0  1  0  0  0  0  0  0  0  0  0
  -31.1980   -1.1090   -8.3890 C   0  0  2  0  0  0  0  0  0  0  0  0
  -30.0280   -1.6890   -7.5670 C   0  0  1  0  0  0  0  0  0  0  0  0
  -30.3610   -6.2360   -8.0210 H   0  0  0  0  0  0  0  0  0  0  0  0
  -27.8620   -2.6300   -9.1320 H   0  0  0  0  0  0  0  0  0  0  0  0
  -31.5690    4.2110   -8.8530 H   0  0  0  0  0  0  0  0  0  0  0  0
  -29.8250    3.0820  -10.4710 H   0  0  0  0  0  0  0  0  0  0  0  0
  -29.9770    1.3230  -10.5270 H   0  0  0  0  0  0  0  0  0  0  0  0
  -29.5460    2.1450   -9.0170 H   0  0  0  0  0  0  0  0  0  0  0  0
  -33.9250    1.6030   -6.6090 H   0  0  0  0  0  0  0  0  0  0  0  0
  -34.1560   -0.9150   -8.1040 H   0  0  0  0  0  0  0  0  0  0  0  0
  -35.4410    0.2740   -7.9020 H   0  0  0  0  0  0  0  0  0  0  0  0
  -34.1410    0.6300  -10.0180 H   0  0  0  0  0  0  0  0  0  0  0  0
  -34.1540    2.0070   -8.9410 H   0  0  0  0  0  0  0  0  0  0  0  0
  -30.6080    0.8430   -7.7470 H   0  0  0  0  0  0  0  0  0  0  0  0
  -31.8860    1.0730   -5.9060 H   0  0  0  0  0  0  0  0  0  0  0  0
  -32.1880   -0.6330   -6.0740 H   0  0  0  0  0  0  0  0  0  0  0  0
  -30.9060   -1.0990   -9.4390 H   0  0  0  0  0  0  0  0  0  0  0  0
  -32.0690   -1.7580   -8.3070 H   0  0  0  0  0  0  0  0  0  0  0  0
  -30.2800   -1.7110   -6.5060 H   0  0  0  0  0  0  0  0  0  0  0  0
  -29.1580   -1.0430   -7.6830 H   0  0  0  0  0  0  0  0  0  0  0  0
  1  2  2  0
  1  3  1  0
  1 10  1  0
  4  8  1  0
  4  5  2  0
  4 20  1  0
  5  6  1  0
  6  7  2  0
  6 19  1  0
  7  8  1  0
  7 21  1  0
 10  9  1  1
  9 22  1  0
 10 11  1  0
 10 15  1  0
 11 23  1  6
 11 24  1  0
 11 25  1  0
 12 17  1  0
 12 13  1  0
 12 26  1  0
 13 14  1  0
 13 27  1  6
 13 28  1  0
 14 15  1  0
 14 29  1  6
 14 30  1  0
 15 16  1  0
 16 17  1  0
 16 18  1  0
 16 31  1  1
 17 32  1  1
 17 33  1  0
 18 19  1  0
 18 34  1  6
 18 35  1  0
 19 36  1  1
 19 37  1  0
M  CHG  1   3  -1
M  END
>  <i_m_ct_stereo_status>  (1) 
1

>  <sample_index>  (1) 
0

$$$$
