Menin Apo2Mol sample 0
     RDKit          3D

 24 24  0  0  0  0  0  0  0  0999 V2000
  -35.2487    2.7304   -5.9701 C   0  0  0  0  0  0  0  0  0  0  0  0
  -34.3404    0.0868   -5.5943 C   0  0  0  0  0  0  0  0  0  0  0  0
  -36.2374    2.0628   -7.8931 O   0  0  0  0  0  0  0  0  0  0  0  0
  -35.7634   -6.8944   -8.8690 C   0  0  0  0  0  0  0  0  0  0  0  0
  -33.7033   -8.0429   -9.3399 N   0  0  0  0  0  0  0  0  0  0  0  0
  -34.1551    3.5262   -6.4332 C   0  0  0  0  0  0  0  0  0  0  0  0
  -35.3956   -0.9164   -5.3964 C   0  0  0  0  0  0  0  0  0  0  0  0
  -36.5157   -5.6936   -8.8293 C   0  0  0  0  0  0  0  0  0  0  0  0
  -36.8498   -3.2870   -9.3176 C   0  0  0  0  0  0  0  0  0  0  0  0
  -32.5567  -10.1489   -9.8843 C   0  0  0  0  0  0  0  0  0  0  0  0
  -34.4759    0.7973   -6.8716 C   0  0  0  0  0  0  0  0  0  0  0  0
  -35.5738    1.7093   -6.8928 C   0  0  0  0  0  0  0  0  0  0  0  0
  -34.5029   -6.8656   -9.4096 C   0  0  0  0  0  0  0  0  0  0  0  0
  -34.6198   -0.3381   -9.1287 C   0  0  0  0  0  0  0  0  0  0  0  0
  -36.0286   -4.5220   -9.3590 C   0  0  0  0  0  0  0  0  0  0  0  0
  -33.8147   -9.2595   -9.8531 C   0  0  0  0  0  0  0  0  0  0  0  0
  -34.7607   -4.5303   -9.8702 C   0  0  0  0  0  0  0  0  0  0  0  0
  -36.2237   -1.9934   -9.6541 C   0  0  0  0  0  0  0  0  0  0  0  0
  -36.6138   -1.4144  -10.9608 C   0  0  0  0  0  0  0  0  0  0  0  0
  -35.7840   -0.8918   -8.8474 N   0  0  0  0  0  0  0  0  0  0  0  0
  -33.8229    0.2374   -8.0154 C   0  0  0  0  0  0  0  0  0  0  0  0
  -33.9710   -5.7006   -9.8990 C   0  0  0  0  0  0  0  0  0  0  0  0
  -36.8858   -0.0342  -11.2261 C   0  0  0  0  0  0  0  0  0  0  0  0
  -33.9781   -0.6903  -10.1829 O   0  0  0  0  0  0  0  0  0  0  0  0
  1  6  1  0
  1 12  1  0
  2  7  1  0
  2 11  1  0
  3 12  2  0
  4  8  2  0
  4 13  1  0
  5 13  1  0
  5 16  2  3
  8 15  1  0
  9 15  1  0
  9 18  1  0
 10 16  1  0
 11 12  1  0
 11 21  1  0
 13 22  2  0
 14 20  1  0
 14 21  1  0
 14 24  2  0
 15 17  2  0
 17 22  1  0
 18 19  1  0
 18 20  1  0
 19 23  1  0
M  END
>  <sample_index>  (1) 
0

$$$$
