METTL14 SAGE-Flex sample 0
     RDKit          3D

 78 81  0  0  0  0  0  0  0  0999 V2000
  -19.7960    6.5440    4.3840 C   0  0  1  0  0  0  0  0  0  0  0  0
  -18.5710   13.2540   -5.1590 C   0  0  1  0  0  0  0  0  0  0  0  0
  -23.7370    8.5350   -0.1180 C   0  0  1  0  0  0  0  0  0  0  0  0
  -19.8830    8.8110   -9.9200 C   0  0  1  0  0  0  0  0  0  0  0  0
  -24.6450    7.8110   -8.5400 O   0  0  0  0  0  0  0  0  0  0  0  0
  -21.2620    7.3240   -8.4970 C   0  0  0  0  0  0  0  0  0  0  0  0
  -22.5020    6.8140   -8.8600 C   0  0  0  0  0  0  0  0  0  0  0  0
  -23.5890    7.6600   -9.4860 C   0  0  2  0  0  0  0  0  0  0  0  0
  -23.0730    9.0420   -9.9550 C   0  0  1  0  0  0  0  0  0  0  0  0
  -22.0870    9.7120   -8.9680 C   0  0  2  0  0  0  0  0  0  0  0  0
  -20.8650    8.7730   -8.7340 C   0  0  2  0  0  0  0  0  0  0  0  0
  -22.7820   10.0930   -7.6210 C   0  0  1  0  0  0  0  0  0  0  0  0
  -19.5770    9.3570   -3.6050 C   0  0  0  0  0  0  0  0  0  0  0  0
  -20.8510    8.8340   -3.8470 C   0  0  0  0  0  0  0  0  0  0  0  0
  -21.7250    9.4790   -4.7430 C   0  0  0  0  0  0  0  0  0  0  0  0
  -21.2410   10.5380   -5.5580 C   0  0  0  0  0  0  0  0  0  0  0  0
  -21.8960   10.9950   -6.7440 C   0  0  0  0  0  0  0  0  0  0  0  0
  -21.5520   12.2520   -7.2700 C   0  0  0  0  0  0  0  0  0  0  0  0
  -20.5130   12.9940   -6.7100 C   0  0  0  0  0  0  0  0  0  0  0  0
  -19.7250   12.4500   -5.6880 C   0  0  0  0  0  0  0  0  0  0  0  0
  -20.0450   11.1860   -5.1500 C   0  0  0  0  0  0  0  0  0  0  0  0
  -19.2040   10.5680   -4.1980 C   0  0  0  0  0  0  0  0  0  0  0  0
  -20.2050    6.3320    2.9240 C   0  0  2  0  0  0  0  0  0  0  0  0
  -20.4200    7.6990    2.2210 C   0  0  1  0  0  0  0  0  0  0  0  0
  -21.3970    5.5430    2.9010 O   0  0  0  0  0  0  0  0  0  0  0  0
  -21.0300    7.5650    0.8020 C   0  0  2  0  0  0  0  0  0  0  0  0
  -20.1900    6.6650   -0.1310 C   0  0  1  0  0  0  0  0  0  0  0  0
  -21.2190    8.9270    0.1150 C   0  0  0  0  0  0  0  0  0  0  0  0
  -22.4550    9.2680   -0.4940 C   0  0  0  0  0  0  0  0  0  0  0  0
  -22.4790   10.2840   -1.4880 C   0  0  0  0  0  0  0  0  0  0  0  0
  -21.3850   11.1530   -1.6180 C   0  0  0  0  0  0  0  0  0  0  0  0
  -20.2070   10.9100   -0.9000 C   0  0  0  0  0  0  0  0  0  0  0  0
  -20.1040    9.7720   -0.0860 C   0  0  0  0  0  0  0  0  0  0  0  0
  -23.5120   10.3980   -2.4150 O   0  0  0  0  0  0  0  0  0  0  0  0
  -23.7580    9.1920   -3.2010 C   0  0  1  0  0  0  0  0  0  0  0  0
  -23.2150    9.1830   -4.6400 C   0  0  1  0  0  0  0  0  0  0  0  0
  -20.6170    6.9910    4.9450 H   0  0  0  0  0  0  0  0  0  0  0  0
  -19.5380    5.5920    4.8470 H   0  0  0  0  0  0  0  0  0  0  0  0
  -18.9300    7.2020    4.4450 H   0  0  0  0  0  0  0  0  0  0  0  0
  -17.6260   12.8110   -5.4730 H   0  0  0  0  0  0  0  0  0  0  0  0
  -18.6240   14.2790   -5.5280 H   0  0  0  0  0  0  0  0  0  0  0  0
  -18.6060   13.2930   -4.0700 H   0  0  0  0  0  0  0  0  0  0  0  0
  -23.7870    7.5630   -0.6080 H   0  0  0  0  0  0  0  0  0  0  0  0
  -23.7930    8.3950    0.9620 H   0  0  0  0  0  0  0  0  0  0  0  0
  -24.6130    9.1240   -0.3930 H   0  0  0  0  0  0  0  0  0  0  0  0
  -20.3280    8.3710  -10.8130 H   0  0  0  0  0  0  0  0  0  0  0  0
  -19.5890    9.8380  -10.1380 H   0  0  0  0  0  0  0  0  0  0  0  0
  -18.9820    8.2460   -9.6840 H   0  0  0  0  0  0  0  0  0  0  0  0
  -24.3470    8.2850   -7.7340 H   0  0  0  0  0  0  0  0  0  0  0  0
  -20.5340    6.6480   -8.0680 H   0  0  0  0  0  0  0  0  0  0  0  0
  -22.7050    5.7670   -8.6780 H   0  0  0  0  0  0  0  0  0  0  0  0
  -23.9830    7.1320  -10.3540 H   0  0  0  0  0  0  0  0  0  0  0  0
  -22.5760    8.9170  -10.9170 H   0  0  0  0  0  0  0  0  0  0  0  0
  -23.9200    9.7050  -10.1360 H   0  0  0  0  0  0  0  0  0  0  0  0
  -21.7330   10.6310   -9.4360 H   0  0  0  0  0  0  0  0  0  0  0  0
  -20.3300    9.1360   -7.8560 H   0  0  0  0  0  0  0  0  0  0  0  0
  -23.7220   10.6070   -7.8220 H   0  0  0  0  0  0  0  0  0  0  0  0
  -23.0290    9.1620   -7.1100 H   0  0  0  0  0  0  0  0  0  0  0  0
  -18.9200    8.8810   -2.8890 H   0  0  0  0  0  0  0  0  0  0  0  0
  -21.1800    7.9830   -3.2660 H   0  0  0  0  0  0  0  0  0  0  0  0
  -22.0680   12.6560   -8.1310 H   0  0  0  0  0  0  0  0  0  0  0  0
  -20.3030   13.9780   -7.1070 H   0  0  0  0  0  0  0  0  0  0  0  0
  -18.2530   10.9940   -3.9100 H   0  0  0  0  0  0  0  0  0  0  0  0
  -19.4060    5.7890    2.4180 H   0  0  0  0  0  0  0  0  0  0  0  0
  -21.0830    8.3180    2.8260 H   0  0  0  0  0  0  0  0  0  0  0  0
  -19.4620    8.2170    2.1690 H   0  0  0  0  0  0  0  0  0  0  0  0
  -21.6780    5.3290    1.9860 H   0  0  0  0  0  0  0  0  0  0  0  0
  -21.9950    7.0720    0.9200 H   0  0  0  0  0  0  0  0  0  0  0  0
  -20.6700    6.5840   -1.1060 H   0  0  0  0  0  0  0  0  0  0  0  0
  -19.1910    7.0780   -0.2740 H   0  0  0  0  0  0  0  0  0  0  0  0
  -20.1030    5.6540    0.2670 H   0  0  0  0  0  0  0  0  0  0  0  0
  -21.4180   11.9560   -2.3410 H   0  0  0  0  0  0  0  0  0  0  0  0
  -19.3460   11.5480   -1.0520 H   0  0  0  0  0  0  0  0  0  0  0  0
  -19.1440    9.5380    0.3550 H   0  0  0  0  0  0  0  0  0  0  0  0
  -23.4070    8.2900   -2.6990 H   0  0  0  0  0  0  0  0  0  0  0  0
  -24.8400    9.0950   -3.2930 H   0  0  0  0  0  0  0  0  0  0  0  0
  -23.7900    9.9290   -5.1890 H   0  0  0  0  0  0  0  0  0  0  0  0
  -23.4230    8.2110   -5.0860 H   0  0  0  0  0  0  0  0  0  0  0  0
  1 23  1  0
  1 37  1  1
  1 38  1  0
  1 39  1  0
  2 20  1  0
  2 40  1  1
  2 41  1  0
  2 42  1  0
  3 29  1  0
  3 43  1  6
  3 44  1  0
  3 45  1  0
  4 11  1  0
  4 46  1  6
  4 47  1  0
  4 48  1  0
  5  8  1  0
  5 49  1  0
  6 11  1  0
  6  7  2  0
  6 50  1  0
  7  8  1  0
  7 51  1  0
  8  9  1  0
  8 52  1  6
  9 10  1  0
  9 53  1  6
  9 54  1  0
 10 11  1  0
 10 12  1  0
 10 55  1  6
 11 56  1  1
 12 17  1  0
 12 57  1  6
 12 58  1  0
 13 22  2  0
 13 14  1  0
 13 59  1  0
 14 15  2  0
 14 60  1  0
 15 16  1  0
 15 36  1  0
 16 21  2  0
 16 17  1  0
 17 18  2  0
 18 19  1  0
 18 61  1  0
 19 20  2  0
 19 62  1  0
 20 21  1  0
 21 22  1  0
 22 63  1  0
 23 24  1  0
 23 25  1  0
 23 64  1  6
 24 26  1  0
 24 65  1  1
 24 66  1  0
 25 67  1  0
 26 27  1  0
 26 28  1  0
 26 68  1  1
 27 69  1  6
 27 70  1  0
 27 71  1  0
 28 33  2  0
 28 29  1  0
 29 30  2  0
 30 31  1  0
 30 34  1  0
 31 32  2  0
 31 72  1  0
 32 33  1  0
 32 73  1  0
 33 74  1  0
 34 35  1  0
 35 36  1  0
 35 75  1  1
 35 76  1  0
 36 77  1  6
 36 78  1  0
M  END
>  <i_m_ct_stereo_status>  (1) 
1

>  <sample_index>  (1) 
0

$$$$
