METTL14 Apo2Mol sample 0
     RDKit          3D

 39 41  0  0  0  0  0  0  0  0999 V2000
  -23.8933    7.6940   -2.9482 C   0  0  0  0  0  0  0  0  0  0  0  0
  -23.6230   11.2709   -5.2054 C   0  0  0  0  0  0  0  0  0  0  0  0
  -18.6694   10.7626   -6.7860 C   0  0  0  0  0  0  0  0  0  0  0  0
  -21.9662   10.1769   -7.0910 C   0  0  0  0  0  0  0  0  0  0  0  0
  -22.8802    7.9635   -7.7161 C   0  0  0  0  0  0  0  0  0  0  0  0
  -22.2192   10.8231   -8.3358 C   0  0  0  0  0  0  0  0  0  0  0  0
  -25.1234   11.4419   -4.4401 C   0  0  0  0  0  0  0  0  0  0  0  0
  -23.1793   12.5072    0.8558 C   0  0  0  0  0  0  0  0  0  0  0  0
  -22.0828    8.9239    2.0478 C   0  0  0  0  0  0  0  0  0  0  0  0
  -24.0978   12.0502   -0.1004 C   0  0  0  0  0  0  0  0  0  0  0  0
  -24.6155   10.2634   -3.5388 C   0  0  0  0  0  0  0  0  0  0  0  0
  -23.2252   10.0045   -4.3895 C   0  0  0  0  0  0  0  0  0  0  0  0
  -22.2500    9.4694   -3.2157 C   0  0  0  0  0  0  0  0  0  0  0  0
  -22.7369    8.6304   -0.8317 C   0  0  0  0  0  0  0  0  0  0  0  0
  -22.7139    9.9765    1.2347 C   0  0  0  0  0  0  0  0  0  0  0  0
  -20.7664   11.1869   -4.8903 C   0  0  0  0  0  0  0  0  0  0  0  0
  -23.6518    6.2453   -0.8841 C   0  0  0  0  0  0  0  0  0  0  0  0
  -23.8575   10.8041   -0.8757 C   0  0  0  0  0  0  0  0  0  0  0  0
  -22.1044    7.8169   -8.9678 C   0  0  0  0  0  0  0  0  0  0  0  0
  -24.3928    7.9066   -8.2362 C   0  0  0  0  0  0  0  0  0  0  0  0
  -21.6134    7.6018    1.8462 C   0  0  0  0  0  0  0  0  0  0  0  0
  -24.4523   10.6700   -2.1463 C   0  0  0  0  0  0  0  0  0  0  0  0
  -23.2990    8.8148   -5.3701 C   0  0  0  0  0  0  0  0  0  0  0  0
  -21.9544    6.8211   -7.3659 C   0  0  0  0  0  0  0  0  0  0  0  0
  -20.1235   12.8720   -7.3723 C   0  0  0  0  0  0  0  0  0  0  0  0
  -19.0220   12.2170   -6.6161 C   0  0  0  0  0  0  0  0  0  0  0  0
  -22.9862    8.5616   -2.2806 C   0  0  0  0  0  0  0  0  0  0  0  0
  -22.9012    9.9453   -0.2333 C   0  0  0  0  0  0  0  0  0  0  0  0
  -23.0618    7.4205   -0.1491 C   0  0  0  0  0  0  0  0  0  0  0  0
  -21.8952    8.7676  -10.0317 C   0  0  0  0  0  0  0  0  0  0  0  0
  -25.0328   13.0109   -0.7703 C   0  0  0  0  0  0  0  0  0  0  0  0
  -19.6117    8.5327   -7.7514 C   0  0  0  0  0  0  0  0  0  0  0  0
  -19.2741    9.9671   -7.9255 C   0  0  0  0  0  0  0  0  0  0  0  0
  -24.2962    7.1552   -9.6578 C   0  0  0  0  0  0  0  0  0  0  0  0
  -22.3446    6.7309    0.9360 C   0  0  0  0  0  0  0  0  0  0  0  0
  -22.8136    6.6381   -9.7782 C   0  0  0  0  0  0  0  0  0  0  0  0
  -23.6004    7.0092  -10.9977 C   0  0  0  0  0  0  0  0  0  0  0  0
  -22.7295    9.0326   -6.7543 C   0  0  0  0  0  0  0  0  0  0  0  0
  -21.2043   10.6994   -6.0618 C   0  0  0  0  0  0  0  0  0  0  0  0
  1 27  1  0
  2  7  1  0
  2 12  1  0
  3 26  2  3
  3 33  1  0
  4  6  1  0
  4 38  1  0
  4 39  1  0
  5 19  1  0
  5 20  1  0
  5 24  1  0
  5 38  1  0
  7 11  1  0
  8 10  1  0
  9 15  2  0
  9 21  1  0
 10 18  1  0
 10 31  1  0
 11 12  1  0
 11 22  1  0
 12 13  1  0
 12 23  1  0
 13 27  1  0
 14 27  1  0
 14 28  2  0
 14 29  1  0
 15 28  1  0
 16 39  1  0
 17 29  1  0
 18 22  1  0
 18 28  1  0
 19 30  1  0
 19 36  1  0
 20 34  1  0
 21 35  1  0
 23 38  2  3
 25 26  1  0
 29 35  2  0
 32 33  1  0
 34 37  1  0
 36 37  1  0
M  END
>  <sample_index>  (1) 
0

$$$$
